/*--------------------------------*- C++ -*----------------------------------*\
| =========                 |                                                 |
| \\      /  F ield         | OpenFOAM: The Open Source CFD Toolbox           |
|  \\    /   O peration     | Version:  v2012                                 |
|   \\  /    A nd           | Website:  www.openfoam.com                      |
|    \\/     M anipulation  |                                                 |
\*---------------------------------------------------------------------------*/
FoamFile
{
    version     2.0;
    format      ascii;
    class       volScalarField;
    object      alphat;
}
// * * * * * * * * * * * * * * * * * * * * * * * * * * * * * * * * * * * * * //

dimensions      [1 -1 -1 0 0 0 0];

internalField   uniform 0;

boundaryField
{
    my-velocity-inlet
    {
        type            calculated;
        value           uniform 0;
    }

    my-pressure-outlet
    {
        type            calculated;
        value           uniform 0;
    }

    my-wall
    {
        type            compressible::alphatWallFunction;;
        value           uniform 0;
    }

    "(frontLeftPlane|frontRightPlane|frontBump|backLeftPlane|backRightPlane|backBump)"
    {
        type            cyclicAMI;
    }

    freeSurf
    {
        type            symmetryPlane;
    }
}

// ************************************************************************* //
