/*--------------------------------*- C++ -*----------------------------------*\
| =========                 |                                                 |
| \\      /  F ield         | OpenFOAM: The Open Source CFD Toolbox           |
|  \\    /   O peration     | Version:  v2012                                 |
|   \\  /    A nd           | Website:  www.openfoam.com                      |
|    \\/     M anipulation  |                                                 |
\*---------------------------------------------------------------------------*/
FoamFile
{
    version     2.0;
    format      ascii;
    class       volScalarField;
    object      T;
}
// * * * * * * * * * * * * * * * * * * * * * * * * * * * * * * * * * * * * * //

dimensions      [0 0 0 1 0 0 0];

internalField   uniform  0.8672;

boundaryField
{

    my-velocity-inlet
    {
        type            totalTemperature;
        gamma           1.4;
        T0              uniform 1;
        value           uniform 1;
    }

    my-pressure-outlet
    {
        type            zeroGradient;
    }

    my-wall
    {
        type            zeroGradient;
    }

    "(frontLeftPlane|frontRightPlane|frontBump|backLeftPlane|backRightPlane|backBump)"
    {
        type            cyclicAMI;
    }

    freeSurf
    {
        type            symmetryPlane;
    }
}

// ************************************************************************* //
